%chk=NTGPy-p-CH3_1+_singlet-opt.chk
#p wb97xd/6-31g* opt freq 

NTGPy-p-CH3_1+_singlet

1 1
 C       -0.084753      2.575279     -0.020245
 C        1.423858      2.447034      0.022092
 C        2.106172      1.201545     -0.008378
 N        1.420847     -0.000997      0.004655
 C       -0.032458     -0.002047      0.010144
 C       -0.739231      1.208901     -0.020940
 C        2.109421     -1.201627      0.028133
 C        1.429648     -2.445652      0.115830
 C       -0.079221     -2.575443      0.140127
 C       -0.737222     -1.214185      0.040921
 C        3.537668      1.206563     -0.067216
 C        4.249306     -0.000049     -0.169748
 C        3.541351     -1.206519     -0.046365
 C       -2.127834     -1.188189      0.016956
 C       -2.852057     -0.005718     -0.033395
 C       -2.129426      1.178529     -0.048581
 C        2.168587      3.605846      0.068924
 C        3.571865      3.623327      0.076787
 C        4.241610      2.442365     -0.009010
 C        4.246355     -2.441010      0.030509
 C        3.579284     -3.619402      0.160133
 C        2.176424     -3.602155      0.185148
 C       -0.506915     -3.235958      1.472522
 C       -0.521201     -3.445919     -1.060059
 C        5.737566      0.009646     -0.387032
 C       -0.565670      3.359307      1.223702
 C       -0.474919      3.326426     -1.315599
 H       -2.672509     -2.124352      0.067721
 H       -2.674611      2.114183     -0.103042
 H        1.649292      4.557402      0.100444
 H        5.323077      2.439514     -0.003108
 H        5.327531     -2.438309      0.019239
 H        1.658270     -4.551364      0.266889
 H       -0.196370     -2.623941      2.324502
 H       -1.591944     -3.357912      1.518342
 H       -0.060868     -4.228498      1.582276
 H       -0.076365     -4.443276     -1.007870
 H       -1.605564     -3.577852     -1.074033
 H       -0.220878     -2.984859     -2.005592
 H        6.267753      0.070207      0.570971
 H        6.079327     -0.883842     -0.906760
 H        6.043143      0.859706     -0.996546
 H       -0.298321      2.831501      2.143857
 H       -0.120833      4.357324      1.259767
 H       -1.650047      3.492080      1.208814
 H       -1.556904      3.465852     -1.380976
 H       -0.015778      4.318883     -1.345796
 H       -0.148132      2.770807     -2.199530
 H        4.104750      4.565171      0.139994
 H        4.114295     -4.558932      0.238759
 C       -4.333415     -0.004539     -0.054026
 C       -5.064234      0.935289      0.675201
 C       -5.050822     -0.941864     -0.799213
 C       -6.453545      0.893810      0.625476
 C       -6.441024     -0.894178     -0.781105
 N       -7.143815      0.001281     -0.085871
 H       -4.565522      1.673623      1.295801
 H       -4.540956     -1.683391     -1.406910
 H       -7.042318      1.611977      1.190936
 H       -7.019758     -1.610138     -1.359798



