%chk=NTGPy_1+_doublet-opt.chk
#p wb97xd/6-31g* opt freq 

NTGPy_1+_doublet

1 2
 C       -0.269396     -2.574679      0.100389
 C        1.234304     -2.463005      0.059294
 C        1.933871     -1.232527      0.020247
 N        1.225072      0.000261      0.003316
 C       -0.189113      0.002801      0.007591
 C       -0.915689     -1.213581      0.038799
 C        1.938439      1.230168     -0.020410
 C        1.243151      2.463578     -0.037179
 C       -0.260618      2.581456     -0.051583
 C       -0.911979      1.221532     -0.019768
 C        3.349083     -1.248045     -0.000422
 C        4.203839     -0.005745     -0.027507
 C        3.353947      1.240075     -0.026688
 C       -2.297802      1.191604     -0.024721
 C       -3.024701      0.006819     -0.001233
 C       -2.300988     -1.179570      0.034373
 C        1.952652     -3.652469      0.076100
 C        3.334751     -3.671259      0.047343
 C        4.014759     -2.468317      0.008197
 C        4.024494      2.457596     -0.040708
 C        3.348750      3.663487     -0.050597
 C        1.966183      3.650496     -0.051018
 C       -0.690343      3.313590     -1.349226
 C       -0.715839      3.381522      1.195921
 C        5.067261     -0.019366     -1.315190
 C        5.110418      0.004818      1.230374
 C       -0.748387     -3.416631     -1.109652
 C       -0.679475     -3.259400      1.430133
 H       -2.843017      2.126965     -0.072240
 H       -2.848871     -2.113089      0.087731
 H        1.418092     -4.594041      0.115242
 H        5.097906     -2.481024     -0.011776
 H        5.107853      2.464531     -0.045451
 H        1.434658      4.594452     -0.064855
 H       -0.369091      2.753933     -2.232461
 H       -1.775864      3.429365     -1.393507
 H       -0.251865      4.312966     -1.399287
 H       -0.278426      4.382474      1.202939
 H       -1.801789      3.500752      1.209453
 H       -0.415799      2.869309      2.114679
 H        4.432730     -0.020238     -2.206252
 H        5.718708      0.856623     -1.360031
 H        5.706893     -0.904508     -1.349211
 H        5.746107     -0.882790      1.264687
 H        5.768894      0.876454      1.231808
 H        4.506973      0.029333      2.142339
 H       -0.465980     -2.938198     -2.051923
 H       -0.311856     -4.417585     -1.090238
 H       -1.833944     -3.538549     -1.098197
 H       -1.764633     -3.372770      1.494084
 H       -0.238856     -4.256494      1.507148
 H       -0.344572     -2.669294      2.288163
 H        3.875081     -4.611539      0.057916
 H        3.892703      4.601740     -0.061400
 C       -4.503300      0.004890     -0.013022
 C       -5.217132     -0.953187     -0.736414
 C       -5.236252      0.957725      0.697658
 C       -6.607200     -0.911735     -0.716776
 C       -6.625640      0.905033      0.654662
 N       -7.311669     -0.006249     -0.036493
 H       -4.705767     -1.703862     -1.331222
 H       -4.741508      1.712948      1.300751
 H       -7.183858     -1.641715     -1.279307
 H       -7.217019      1.629722      1.208860



