%chk=NTGPy+H_1+_singlet-opt.chk
#p wb97xd/6-31g* opt freq 

NTGPy+H_1+_singlet

1 1
 C       -2.868184      0.051286     -0.754626
 C       -1.995367     -1.188407     -0.739746
 C       -0.637288     -1.180741     -0.374877
 N        0.005800      0.039440      0.023100
 C       -0.694545      1.233132      0.010298
 C       -2.058226      1.282602     -0.392980
 C        1.382996      0.013168      0.427517
 C        2.028770      1.189947      0.846448
 C        1.358372      2.549441      0.882859
 C       -0.078014      2.454130      0.401653
 C        0.076892     -2.390964     -0.403424
 C        1.542385     -2.518962     -0.039030
 C        2.112063     -1.188418      0.410394
 C       -0.795934      3.632005      0.361091
 C       -2.124292      3.704082     -0.070951
 C       -2.719360      2.492339     -0.437309
 C       -2.606054     -2.386360     -1.103559
 C       -1.910488     -3.578641     -1.138775
 C       -0.574446     -3.561010     -0.793304
 C        3.447948     -1.184468      0.811228
 C        4.084260     -0.036224      1.236981
 C        3.361829      1.140525      1.248403
 C        2.139636      3.516030     -0.039127
 C        1.360587      3.076067      2.337317
 C        2.325739     -3.000082     -1.283733
 C        1.687126     -3.542705      1.112852
 C       -3.464545      0.232180     -2.170794
 C       -4.000671     -0.120847      0.285209
 H       -0.279094      4.544569      0.634685
 H       -3.766717      2.481962     -0.716238
 H       -3.658250     -2.386730     -1.366675
 H       -0.015584     -4.489513     -0.823865
 H        4.006489     -2.113289      0.786955
 H        3.850042      2.051206      1.577845
 H        2.137500      3.147630     -1.069276
 H        1.703200      4.519813     -0.033212
 H        3.179013      3.615237      0.282944
 H        2.378616      3.162518      2.725823
 H        0.901767      4.068253      2.402514
 H        0.803408      2.398924      2.991490
 H        2.236659     -2.272768     -2.096436
 H        3.387746     -3.129680     -1.057265
 H        1.946037     -3.960855     -1.642868
 H        1.292166     -4.521141      0.828465
 H        2.735117     -3.686465      1.387538
 H        1.145196     -3.200864      1.999736
 H       -2.668547      0.367575     -2.909012
 H       -4.055524     -0.637807     -2.465891
 H       -4.130727      1.099304     -2.219764
 H       -4.666339      0.748731      0.298286
 H       -4.611010     -0.999021      0.057825
 H       -3.583167     -0.248229      1.288468
 H       -2.399641     -4.501872     -1.429684
 H        5.122689     -0.056858      1.549433
 C       -2.841321      4.955778     -0.139003
 C       -3.969739      5.125629     -0.982982
 C       -2.458669      6.088160      0.626024
 C       -4.632928      6.319722     -1.040624
 C       -3.150964      7.263896      0.537555
 N       -4.219936      7.365798     -0.286977
 H       -4.305321      4.323816     -1.628095
 H       -1.631497      6.034488      1.322179
 H       -5.488070      6.493217     -1.681752
 H       -2.897650      8.145981      1.112237
 H       -4.720539      8.244116     -0.342033



